/*--------------------------------*- C++ -*----------------------------------*\
| =========                 |                                                 |
| \\      /  F ield         | OpenFOAM: The Open Source CFD Toolbox           |
|  \\    /   O peration     | Version:  2412                                  |
|   \\  /    A nd           | Website:  www.openfoam.com                      |
|    \\/     M anipulation  |                                                 |
\*---------------------------------------------------------------------------*/
FoamFile
{
    version     2.0;
    format      ascii;
    arch        "LSB;label=32;scalar=64";
    class       polyBoundaryMesh;
    location    "constant/polyMesh";
    object      boundary;
}
// * * * * * * * * * * * * * * * * * * * * * * * * * * * * * * * * * * * * * //

5
(
    inlet
    {
        type            patch;
        nFaces          133;
        startFace       25922;
    }
    outlet
    {
        type            patch;
        nFaces          131;
        startFace       26055;
    }
    walls
    {
        type            wall;
        inGroups        1(wall);
        nFaces          99;
        startFace       26186;
    }
    frontAndBack
    {
        type            empty;
        inGroups        1(empty);
        nFaces          26154;
        startFace       26285;
    }
    procBoundary0to2
    {
        type            processor;
        inGroups        1(processor);
        nFaces          101;
        startFace       52439;
        matchTolerance  0.0001;
        transform       unknown;
        myProcNo        0;
        neighbProcNo    2;
    }
)

// ************************************************************************* //
