/*--------------------------------*- C++ -*----------------------------------*\
| =========                 |                                                 |
| \\      /  F ield         | OpenFOAM: The Open Source CFD Toolbox           |
|  \\    /   O peration     | Version:  2412                                  |
|   \\  /    A nd           | Website:  www.openfoam.com                      |
|    \\/     M anipulation  |                                                 |
\*---------------------------------------------------------------------------*/
FoamFile
{
    version     2.0;
    format      ascii;
    arch        "LSB;label=32;scalar=64";
    class       polyBoundaryMesh;
    location    "constant/polyMesh";
    object      boundary;
}
// * * * * * * * * * * * * * * * * * * * * * * * * * * * * * * * * * * * * * //

5
(
    inlet
    {
        type            patch;
        nFaces          132;
        startFace       26077;
    }
    outlet
    {
        type            patch;
        nFaces          136;
        startFace       26209;
    }
    walls
    {
        type            wall;
        inGroups        1(wall);
        nFaces          99;
        startFace       26345;
    }
    frontAndBack
    {
        type            empty;
        inGroups        1(empty);
        nFaces          26312;
        startFace       26444;
    }
    procBoundary3to4
    {
        type            processor;
        inGroups        1(processor);
        nFaces          103;
        startFace       52756;
        matchTolerance  0.0001;
        transform       unknown;
        myProcNo        3;
        neighbProcNo    4;
    }
)

// ************************************************************************* //
