% ================== SU2 CONFIGURATION FILE ==================
% Generated by Nozzle CFD Design Tool
%

% -------------------- PROBLEM DEFINITION --------------------
SOLVER= NAVIER_STOKES
MATH_PROBLEM= DIRECT
RESTART_SOL= NO

% -------------------- TIME DOMAIN ----------------------------
TIME_DOMAIN= YES
TIME_MARCHING= DUAL_TIME_STEPPING-2ND_ORDER
TIME_STEP= 5e-06
MAX_TIME= 0.4
TIME_ITER= 80001
INNER_ITER= 10

% -------------------- FLUID MODEL ----------------------------
FLUID_MODEL= IDEAL_GAS
GAMMA_VALUE= 1.4
GAS_CONSTANT= 287.058
CRITICAL_TEMPERATURE= 131.0
CRITICAL_PRESSURE= 3588550.0
ACENTRIC_FACTOR= 0.035

% -------------------- VISCOSITY MODEL -----------------------
VISCOSITY_MODEL= SUTHERLAND
MU_REF= 1.716e-5
MU_T_REF= 273.15
SUTHERLAND_CONSTANT= 110.4
PRANDTL_LAM= 0.72
PRANDTL_TURB= 0.9

% -------------------- FREE-STREAM DEFINITION -----------------
MACH_NUMBER= 0.00028799870003670566
AOA= 0.0
SIDESLIP_ANGLE= 0.0
FREESTREAM_PRESSURE= 100000.0
FREESTREAM_TEMPERATURE= 300.0
REYNOLDS_NUMBER= 1000000.0
REYNOLDS_LENGTH= 1.0
INIT_OPTION= TD_CONDITIONS

% -------------------- REFERENCE VALUES ------------------------
REF_ORIGIN_MOMENT_X= 0.0
REF_ORIGIN_MOMENT_Y= 0.0
REF_ORIGIN_MOMENT_Z= 0.0
REF_LENGTH= 1.0
REF_AREA= 1.0
REF_DIMENSIONALIZATION= DIMENSIONAL

% -------------------- BOUNDARY MARKERS ------------------------
MARKER_INLET= (inlet, 300.0, 2500000.0, 1.0, 0.0, 0.0)
MARKER_OUTLET= (outlet, 100000.0)
MARKER_HEATFLUX= (wall, 0.0)
MARKER_MONITORING= (wall)
MARKER_ANALYZE= (inlet, outlet)
MARKER_ANALYZE_AVERAGE= MASSFLUX
MARKER_PLOTTING= (inlet, outlet, wall)

% -------------------- NUMERICAL METHOD ------------------------
NUM_METHOD_GRAD= WEIGHTED_LEAST_SQUARES
CFL_NUMBER= 10.0
CFL_ADAPT= NO
MAX_DELTA_TIME= 1E10

% -------------------- CONVECTIVE SCHEME -----------------------
CONV_NUM_METHOD_FLOW= JST
MUSCL_FLOW= NO
SLOPE_LIMITER_FLOW= VENKATAKRISHNAN
TIME_DISCRE_FLOW= EULER_IMPLICIT

% -------------------- LINEAR SOLVER --------------------------
LINEAR_SOLVER= FGMRES
LINEAR_SOLVER_PREC= ILU
LINEAR_SOLVER_ERROR= 1e-06
LINEAR_SOLVER_ITER= 15

% -------------------- MULTIGRID ------------------------------
MGLEVEL= 3
MGCYCLE= W_CYCLE
MG_PRE_SMOOTH= (1, 2, 3, 3)
MG_POST_SMOOTH= (0, 0, 0, 0)
MG_CORRECTION_SMOOTH= (0, 0, 0, 0)
MG_DAMP_RESTRICTION= 0.75
MG_DAMP_PROLONGATION= 0.75

% -------------------- CONVERGENCE CRITERIA -------------------
CONV_RESIDUAL_MINVAL= -8
CONV_STARTITER= 10
CONV_CAUCHY_ELEMS= 100
CONV_CAUCHY_EPS= 1E-6

% -------------------- INPUT/OUTPUT ---------------------------
MESH_FILENAME= mesh.su2
MESH_FORMAT= SU2
SOLUTION_FILENAME= restart_flow.dat
OUTPUT_FILES= (RESTART, PARAVIEW, SURFACE_PARAVIEW, SURFACE_CSV)
RESTART_FILENAME= restart_flow
WRT_RESTART_OVERWRITE= YES
TABULAR_FORMAT= CSV
CONV_FILENAME= history
HISTORY_OUTPUT= (ITER, RMS_RES, AERO_COEFF, FLOW_COEFF, FLOW_COEFF_SURF)
VOLUME_FILENAME= flow
SURFACE_FILENAME= surface_flow
OUTPUT_WRT_FREQ= 1000
SCREEN_OUTPUT= (INNER_ITER, WALL_TIME, RMS_DENSITY, RMS_MOMENTUM-X, RMS_ENERGY, LIFT, DRAG)
